<?xml version="1.0" encoding="UTF-8"?>

<!-- generated on 2026-03-15 23:05:26.466645 by Eclipse SUMO randomTrips.py v1_26_0+0000-fa7df22d7f1
<configuration>
    <net-file value="C:\Users\HP\Downloads\sumo_casa_v2\projet_sumo\sumo\casablanca.net.xml"/>
    <output-trip-file value="C:\Users\HP\Downloads\sumo_casa_v2\projet_sumo\sumo\trips.trips.xml"/>
    <end value="60.0"/>
    <period value="1.2"/>
    <random-depart value="True"/>
</configuration>
-->

<!-- generated on 2026-03-15T23:05:26.257081+00:00 by Eclipse SUMO duarouter 1.26.0
<duarouterConfiguration xmlns:xsi="http://www.w3.org/2001/XMLSchema-instance" xsi:noNamespaceSchemaLocation="http://sumo.dlr.de/xsd/duarouterConfiguration.xsd">

    <input>
        <net-file value="C:\Users\HP\Downloads\sumo_casa_v2\projet_sumo\sumo\casablanca.net.xml"/>
        <route-files value="C:\Users\HP\Downloads\sumo_casa_v2\projet_sumo\sumo\trips.trips.xml"/>
    </input>

    <output>
        <output-file value="routes.rou.xml"/>
        <alternatives-output value="NUL"/>
    </output>

    <time>
        <begin value="0.0"/>
        <end value="60.0"/>
    </time>

    <report>
        <no-warnings value="true"/>
        <ignore-errors value="true"/>
        <no-step-log value="true"/>
    </report>

</duarouterConfiguration>
-->

<routes xmlns:xsi="http://www.w3.org/2001/XMLSchema-instance" xsi:noNamespaceSchemaLocation="http://sumo.dlr.de/xsd/routes_file.xsd">
    <vehicle id="0" depart="0.40">
        <route edges="38504968#0 38504968#1 38504975#0 38504975#1 38504975#2 38504975#3 38504975#4 38504975#5 1312225446#3 1312225446#4 182932867#0 182932867#1 38517883#0 38517883#1 38517883#2 38517883#3 1421674160#0 1421674160#1 1421674160#2 1421674160#3 1421674160#4 1421674160#5 1421674160#6 1421674160#7 1421674160#8 1421674160#9 1421674160#10 1421674160#11 38517884#20 38517884#21 38517884#22"/>
    </vehicle>
    <vehicle id="1" depart="4.00">
        <route edges="38504984#1 38504984#2 182932892#4 182932892#5 182932892#6 182932892#7 1445718207#0 1445718207#1 -1445718207#1 -1445718207#0"/>
    </vehicle>
    <vehicle id="2" depart="4.60">
        <route edges="34882325#0 149539151#4 149539151#5 149539151#6 149539151#7 149539151#8 149539151#9 149539151#10 176157308 214485131#0 214485131#1 214485131#2 214485131#3 214485131#4 203937557#0 203937557#1 203937557#2"/>
    </vehicle>
    <vehicle id="3" depart="4.80">
        <route edges="-579231973#1 579231973#1 579231973#2 579231973#3 579231973#4 579231973#5 579231973#6 579231973#7 1312225446#4 182932867#0 182932867#1 182932867#2 182932867#3 1444512987#0 1444512987#1 1444512986 1444483472#0 1444483472#1 1347892939#1 1347892938#0 1347892938#1 1444483471#0 1444483471#1 338675698#0 338675698#1 338675698#2 338675698#3 338675698#4 338675698#5 338675698#6 338675698#7 338675698#8 338675698#9 338675698#10 338675698#11 338675698#12 338675698#13 520730557#0 520730557#1 520730557#2 520730557#3 149539175#0 149539175#1 421572444#0 421572444#1 420918538 421572458 421572457 149539155#0 149539155#1 -1454259845#1 -1454259845#0 1454259858#0 1454259858#1 -1454259856 -1454259843 -1454259842 -1454259844 -1454259847 -1454259850 1454259851#0 1454259851#1 -1454259849 -1371900286 1371900286 1454259849 1454259848#0 1454259848#1 1454259850 1454259847 1454259844 1454259842 1454259843 1454259856 1454259857#0 1454259857#1"/>
    </vehicle>
    <vehicle id="4" depart="9.40">
        <route edges="-59541063#3 -59541063#2 -59541063#1 -59541063#0 -1446253324 421572488#1 1446253325 203937551 243446016#0 243446016#1 243446016#2 243446016#3 243446016#4 243446016#5 243446016#6 243446016#7 243446016#8 1426161669 1446253321#0 1446253321#1 1426161668#0 1426161668#1 1426161668#2 1425801143#0 203937566#0 203937566#1 202733814 1371900285 1371900283 1371900284#0 38785100 34882152#0 34882152#1 34882152#2 34882152#3 34882152#4 1318479273#4 1318479273#5 1318479273#0 579211958"/>
    </vehicle>
    <vehicle id="5" depart="10.60">
        <route edges="1339182205#0 1339182205#1 1112150720 514933198#0 514933198#1 -1339182204#1 -1339182204#0 -1368343182 -1368343183#6 38518217#0 38518217#1 215090995#2 38518218#4"/>
    </vehicle>
    <vehicle id="6" depart="13.40">
        <route edges="-1444474425#0 -1444483468#1 -1444483468#0 1433305208#1 1444483467 579703667#0 579703667#1 579703667#2 579703667#3 579703667#4 1387286079#0 1387286079#1 -202733886 8013558#0 8013558#1 421572444#0 421572444#1 420918538 421572458 421572457 149539147 420918583 149539151#0 149539151#1 149539151#2 149539151#3 149539151#4 149539151#5 149539151#6 149539151#7 149539151#8 149539151#9 149539151#10 149539151#11 149539151#12 1316247792 1339182211#0 1339182211#1 1316247797 514933199#0 514933199#1 514933199#2 1368343178#0 1368343178#1 1396120987 1368343179 1368343180#0 1368343180#1 1368343181#0 1368343181#1 1396120988 1368226769#0 1368226769#1 514933198#0 514933198#1 514933198#2 514933198#3 421566992#0 421566992#1 421566992#2 421566992#3"/>
    </vehicle>
    <vehicle id="7" depart="13.40">
        <route edges="-1444512987#0 -182932867#3 -182932867#2 -182932867#1 -182932867#0 1312225446#5 1312225446#6 1312225446#0 1312225446#1 1312225446#2 -38504975#5 -38504975#4 -38504975#3 -38504975#2 -38504975#1 -38504975#0 38504968#2 738375590#0 -579238600#3 -579238600#2 -579238600#1 -579238600#0 -38504984#2 -38504984#1 -38504984#0 708936531#0 708936531#1 708936531#2 1445332642#0 1445332642#1 521351154#4 521351154#5 521351154#6 521351154#7 521351154#8"/>
    </vehicle>
    <vehicle id="8" depart="14.00">
        <route edges="214667169#1 214667169#2 -214667169#2 -214667169#1 -214667169#0 38517884#0 38517884#1 38517884#2 38517884#3 38517884#4 520401694#3 520401694#4 1365663322 1368230240#0 1368230240#1 1365663323 1316247794 1316247802#0 1316247802#1 1316247802#2 1339182210#1 422855908#0 422855908#1 422855908#2 422855908#3 422855908#4 422855908#5 422855908#6 422855908#7 38517891#0 38517891#1"/>
    </vehicle>
    <vehicle id="9" depart="15.20">
        <route edges="-514933199#2 -514933199#1 -514933199#0 1316247793#0 1339182209 422855905#0 422855905#1 422855905#2 422855905#3 422855905#4 422855905#5 1328516461#0 1328516461#1 1328516463#1 1328516463#2 476371735 514934192#0 514934192#1 514934192#2 514934192#3 514934192#4 514934192#5 514934192#6 174302506#4 174302506#5 174302506#6"/>
    </vehicle>
    <vehicle id="10" depart="15.40">
        <route edges="519371475#0 519371475#1 421572457 149539147 420918583 149539151#0 149539151#1 149539151#2 149539151#3 149539151#4 149539151#5 149539151#6 149539151#7 149539151#8 149539151#9 149539151#10 149539151#11 149539151#12 1316247792 1339182211#0 1339182211#1 1316247797 1316247793#0 1339182209 422855905#0 422855905#1 422855905#2 422855905#3 422855905#4 422855905#5 1328516461#0 1328516461#1 -1328516463#0 -1328516457#1 -1328516457#0 -1315696764 1347390194#0 1347390194#1 1315696759#2 1315696759#3 1315696759#4 1315696763#0 1315696763#1 36359376#0"/>
    </vehicle>
    <vehicle id="11" depart="16.40">
        <route edges="-38503595#2 -38503595#1"/>
    </vehicle>
    <vehicle id="12" depart="16.40">
        <route edges="38518022#8 38518022#9 38518022#10 332702274#3 332702274#4 38504977 579231973#0 579231973#1 579231973#2 579231973#3 579231973#4 579231973#5 579231973#6 579231973#7 1312225446#4 182932867#0 182932867#1 38517883#0 38517883#1 38517883#2 38517883#3 1421674160#0 1421674160#1 1421674160#2 1421674160#3 1421674160#4 1421674160#5 1421674160#6 1421674160#7 1421674160#8 1421674160#9 1421674160#10 1421674160#11 1421674160#12 1421674160#13 1421674160#14 1421674160#15 1421674160#16 1421674160#17 1421674160#18 1421674160#19 1421674160#20 1421674160#21 1421674160#22 1421674160#23 422855908#3 422855908#4 214485131#0 214485131#1 214485131#2"/>
    </vehicle>
    <vehicle id="13" depart="16.60">
        <route edges="38518032#0 38518032#1 38518032#2 -59541063#0 -1446253324 421572488#1 421685204 421685183 1446253327 149539153#0 149539153#1 519371475#0 519371475#1 421572457 149539147 420918583 149539151#0 149539151#1 149539151#2 149539151#3 149539151#4 149539151#5 149539151#6 149539151#7 149539151#8 149539151#9 149539151#10 149539151#11 149539151#12 1316247792 1339182211#0 1339182211#1 1316247797 1316247793#0 1339182209 422855905#0 422855905#1 422855905#2 422855905#3 422855905#4 422855905#5 1328516461#0 1328516461#1 1328516461#2 1328516460#0 174302521#2 1375872445#0 1375872445#1 214486836#0 214486836#1 214486836#2 214486836#3 214486836#4 1445332637 1445332638#0 1445332638#1"/>
    </vehicle>
    <vehicle id="14" depart="18.60">
        <route edges="243446016#2 243446016#3 243446016#4 243446016#5 243446016#6 243446016#7 243446016#8 1426161669 1446253321#0 1446253321#1 1426161668#0 1426161668#1 1426161668#2 1425801143#0 203937566#0 203937566#1 202733814 1371900285 1371900283"/>
    </vehicle>
    <vehicle id="15" depart="19.80">
        <route edges="8013558#1 421572444#0 421572444#1 420918538 421572458 421572457 149539147 420918583 422855901 422855910 149539158 1445341540#0 1445341540#1 421572469#0 421572469#1 -520730557#3 -520730557#2 -520730557#1 -520730557#0 -38517884#34 -38517884#33 -38517884#32 -38517884#31 -38517884#30 -38517884#29 -38517884#28 -38517884#27 -38517884#26 -38517884#25 -38517884#24 -38517884#23 -38517884#22 -38517884#21 -38517884#20 -38517884#19 -38517884#18 -38517884#17 -38517884#16 -38517884#15 -38517884#14 -38517884#13 -38517884#12 -38517884#11 -38517884#10 -38517884#9 -38517884#8 -38517884#7 -38517884#6 -38517884#5 -520401694#2 -520401694#1 -520401694#0 1111202198#0 1111202198#1 520401691#0 520401691#1 1365663320#0 1365663320#1 738358880#0 738358880#1 738358880#2 421566990#0 421566990#1 421566990#2 1316812041#0 1316812041#1 1316812041#2 1316812041#3 520402445#0 520402445#1 1445370464#0 1445370464#1 521351151#0 521351151#1 -521351153 -174302482#2 -38503589#3"/>
    </vehicle>
    <vehicle id="16" depart="19.80">
        <route edges="174297960#0 174297960#1 174297960#2 174297960#3 575575265 38517883#2 38517883#3 1421674160#0 1421674160#1 1421674160#2 1421674160#3 1421674160#4 1421674160#5 1421674160#6 1421674160#7 1421674160#8 1421674160#9 1421674160#10 1421674160#11 -38517884#19 -38517884#18 -38517884#17 -38517884#16 -38517884#15 -38517884#14 -38517884#13 -38517884#12 -38517884#11 -38517884#10 -38517884#9 -38517884#8 -38517884#7 -38517884#6 -38517884#5 520401694#3 520401694#4 1365663322 1368230240#0 1368230240#1 1365663323 339183558 1339182206#0 1339182206#1 1316247796#0 1316247796#1 1316247797 514933199#0 514933199#1 514933199#2 1368343178#0 1368343178#1 1396120987 1368343179 1368343180#0 1368343180#1 1368343181#0 1368343181#1 1421663800#0 1421663800#1 339220630#0 339220630#1 339220630#2 339220630#3 339220630#4 339220630#5 38518214#8"/>
    </vehicle>
    <vehicle id="17" depart="20.80">
        <route edges="422855908#1 422855908#2 422855908#3 422855908#4 -176157308 149539151#11 149539151#12 1316247792 1339182211#0 1339182211#1 1316247797 1316247793#0 1316247793#1 1316247793#2 -1339182206#1 -1339182206#0 -339183558 -1365663323 -1368230240#1 -1368230240#0 -1365663322 -520401694#4 -520401694#3 -520401694#2 -520401694#1 -520401694#0 1111202198#0 1111202198#1 520401691#0 520401691#1 1365663320#0 1365663320#1 1111202193 514302004#0 514302004#1 1111202202#0 1111202202#1 738358879#0 738358879#1 421567012#0 421567012#1 421567012#2 421567012#3 421567012#4 1312225445#0 1312225445#1 -38504975#3 -38504975#2 -38504974#3"/>
    </vehicle>
    <vehicle id="18" depart="21.60">
        <route edges="-38504984#2 38504984#2 579238600#0 579238600#1 579238600#2 579238600#3 738375590#1 38504968#0 59541073#0 38504981#2"/>
    </vehicle>
    <vehicle id="19" depart="23.60">
        <route edges="-214485591#1 -214485591#0 -1444483461#1 -1444483461#0 -1445679846#1 -1445679846#0 -1444483462 422855904#6 422855904#7 422855904#8 1446253333#0 1446253333#1 1443953257 421572478 421572488#0 421572488#1 421685204 421685183 1446253327 149539153#0 149539153#1 519371475#0 519371475#1 421572457 149539147 420918583 149539151#0 149539151#1 149539151#2 149539151#3 149539151#4 149539151#5 149539151#6 149539151#7 149539151#8 149539151#9 149539151#10 149539151#11 149539151#12 1316247792 1339182211#0 1339182211#1 1316247797 514933199#0 514933199#1 514933199#2 1368343178#0 1368343178#1 -520401065#4 -520401065#3 -520401065#2 520401065#2"/>
    </vehicle>
    <vehicle id="20" depart="25.40">
        <route edges="38518214#0 38518214#1 38518214#2 38518214#3 38518218#3 38518218#4 38518218#5"/>
    </vehicle>
    <vehicle id="21" depart="25.60">
        <route edges="1347892954 1347892953 1347892952 1347892944 1347892943 1444483469 1347892942#0 1347892942#1 1347892938#0 1347892938#1 1444483471#0 1444483471#1 338675698#0 338675698#1 40520543 1245413408#10 1245413408#11"/>
    </vehicle>
    <vehicle id="22" depart="26.40">
        <route edges="-38504975#5 -38504975#4 38504975#4 38504975#5 1312225446#3 1312225446#4 182932867#0 182932867#1 182932867#2 182932867#3 1444512987#0 1444512984 38518022#0 38518022#1 38518022#2 38518022#3 38518022#4 38517888#0 38517888#1 -1314076472"/>
    </vehicle>
    <vehicle id="23" depart="29.80">
        <route edges="38517891#7 520401690#22 117819585#0 -38517884#32 -38517884#31 38785118#0 38785118#1 38785118#2 38785118#3 38785118#4 38785118#5 38785118#6 38785118#7 38785118#8 422855908#7 38517891#0 38517891#1 38517891#2 38517891#3 38517891#4"/>
    </vehicle>
    <vehicle id="24" depart="32.20">
        <route edges="590882735 -38706607#3 -38706607#2 -38706607#1 -38706607#0 -1444546055#2 -1444546055#1 -1444546055#0 -1444546056#1 -1444546056#0 -214485591#0 -1444483461#1 -1444483461#0 -1445679846#1 -1445679846#0 -1444483462 422855904#6 422855904#7 422855904#8 1446253333#0 1446253333#1 1443953257 421572478 421572488#0 421572488#1 421685204 421685183 1446253327 149539153#0 149539153#1 519371475#0 519371475#1 421572457 149539147 420918583 149539151#0 149539151#1 149539151#2 149539151#3 34882325#1 34882325#2 34882325#3 34882325#4 34882325#5 34882325#6 34882325#7 34882325#8 38518216#2 38518216#3"/>
    </vehicle>
    <vehicle id="25" depart="34.00">
        <route edges="176157307#8 176157307#9 176157307#10 1368340730#0 1368340730#1 1368340729#0 1368340729#1 1373487617#0 1373487617#1 1373487617#2 514933196 1339182205#0 1339182205#1 1112150720 514933198#0 1339182203 174297850#0 174297850#1 174297850#2 174297850#3 174297850#4 174297850#5 174297850#6 1454259856 1454259857#0 1454259857#1 1454259845#0 1454259845#1 -202733808 -202733838"/>
    </vehicle>
    <vehicle id="26" depart="36.20">
        <route edges="34882008#0 34882008#1 34882008#2 215092800 -1371900284#1 -1371900284#0 -1371900283 -1371900285 -202733814 1371900276 1371900286 1454259849 1454259848#0 1454259848#1 1454259850 1454259847 1454259844 1454259842 1454259843 1454259856 1454259857#0 1454259857#1 1454259845#0 1454259845#1 250426638 1454259846#0 1454259846#1 1454259846#2 1454259846#3 1454259846#4 420918583 422855901 422855910 149539158 1445341540#0 1445341540#1 421572469#0 421572469#1"/>
    </vehicle>
    <vehicle id="27" depart="37.20">
        <route edges="176157307#8 176157307#9 176157307#10 1368340730#0 1368340730#1 417889493#0 417889493#1 176158499#1 214667154#0 214667154#1 215084458#0 215084458#1 176158500#0 36914861#5 1339182208#0 1339182208#1 1316247793#2 1316247796#0 422867202 1339182210#0 1339182210#1 422855908#0 422855908#1 422855908#2 422855908#3 422855908#4 422855908#5 422855908#6 422855908#7 422855908#8 422855908#9 422855908#10 422855908#11 422855908#12 422855908#13 422855908#14 422855908#15 422855908#16 422855910 420918590 420918538 512509918#0 512509918#1 1446253328#0 1446253328#1 421572485 423645191 38704977 1446253332 421572454#0 421572454#1 421572454#2 421572454#3 421572454#4 421572454#5 1445679845 579541519#0 579541519#1 38706601#0 38706601#1 38706601#2 1444546054 1444546055#1 1444546055#2 38706607#0 -40520547#3 -40520545#2 -40520545#1"/>
    </vehicle>
    <vehicle id="28" depart="38.40">
        <route edges="579513653#2 -579513653#2 -579513653#1 -579513653#0 -1425801166 1426161672#2 243446015#0 243446015#1 243446015#2 243446015#3 243446015#4 421685182#0 421685182#1 519371475#0 519371475#1 421572457 149539147 420918583 149539151#0 149539151#1 149539151#2 149539151#3 149539151#4 149539151#5 149539151#6 149539151#7 149539151#8 149539151#9 149539151#10 176157308 422855908#5 422855908#6 422855908#7 422855908#8 422855908#9 422855908#10 422855908#11 203937546#0 203937546#1 203937546#2 575575269#0 575575269#1"/>
    </vehicle>
    <vehicle id="29" depart="39.20">
        <route edges="174297822#1 174297822#2 174297822#3 -1454259844 -1454259847 -1454259850 1454259851#0 1454259851#1 -1454259849 -1371900286 1371900286 1454259849 1454259848#0 1454259848#1 1454259850 1454259847 1454259844 1454259842 1454259843 1454259856 1454259857#0 1454259857#1 1454259845#0 1454259845#1 -202733808 -202733838 -590874435 -1381180023 -202733860 202733886 1387286080#0 1387286080#1 1387286080#2 1245413408#0 1245413408#1 1245413408#2 1245413408#3 1245413408#4 1245413408#5 1245413408#6 1245413408#7 1245413408#8 1245413408#9 1245413408#10 1245413408#11 1245413408#12 1444483466#0 1444483466#1 1433305207#0 -1444483463#1 -1444483463#0 -214485139#1 -214485139#0"/>
    </vehicle>
    <vehicle id="30" depart="40.00">
        <route edges="1371900284#0 -1371900284#0 -1371900283 -1371900285 -202733814 1371900276 1371900286 1454259849 1454259848#0 1454259848#1 1454259850 1454259847 1454259844 1454259842 1454259843 1454259856 1454259857#0 1454259857#1 1454259845#0 1454259845#1 250426638 1454259846#0 1454259846#1 1454259846#2 1454259846#3 1454259846#4 420918583 422855901 422855910 149539158 1445341540#0 1445341540#1 421572469#0 421572469#1 -520730557#3 -520730557#2 -520730557#1 -520730557#0 -38517884#34 -38517884#33 -38517884#32 -38517884#31 -38517884#30 -38517884#29 -38517884#28 -38517884#27 -38517884#26 -38517884#25 -38517884#24 -38517884#23 -38517884#22 -38517884#21 -38517884#20 -38517884#19 -38517884#18 -38517884#17 -38517884#16 -38517884#15 -38517884#14 -38517884#13 -38517884#12 -38517884#11 -38517884#10 -38517884#9 -38517884#8 -38517884#7 -38517884#6 -38517884#5 -520401694#2 -520401694#1 -520401694#0 1111202198#0 1111202198#1 520401691#0 520401691#1 1365663320#0 1365663320#1 1111202193 514302004#0 514302004#1 1111202202#0 1111202202#1 738358879#0 182932892#0 182932892#1 182932892#2 182932892#3 -38504984#2 -38504984#1 596649751"/>
    </vehicle>
    <vehicle id="31" depart="41.60">
        <route edges="-575566983 -416247811 -575566984 38517885#2 38517885#3 38517883#1 38517883#2 38517883#3 1421674160#0 1421674160#1 1421674160#2 1421674160#3 1421674160#4 1421674160#5 1421674160#6 1421674160#7 1421674160#8 1421674160#9 1421674160#10 1421674160#11 -38517884#19 -38517884#18 -38517884#17 -38517884#16 -38517884#15 -38517884#14 -38517884#13 -38517884#12 -38517884#11 -38517884#10 -38517884#9 -38517884#8 -38517884#7 -38517884#6 -38517884#5 -38517884#4 -38517884#3 -38517884#2 -38517884#1 -38517884#0 214667169#0"/>
    </vehicle>
    <vehicle id="32" depart="42.20">
        <route edges="-1454259845#1 -1454259845#0 1454259858#0 1454259858#1 -1454259856 -1454259843 -1454259842 -1454259844 -1454259847 -1454259850 1454259851#0 1454259851#1 -1454259849 -1371900286 1371900286 1454259849 1454259848#0 1454259848#1 1454259850 1454259847 1454259844 1454259842 1454259843 1454259856 1454259857#0 1454259857#1 1454259845#0 1454259845#1 250426638 1454259846#0 1454259846#1 1454259846#2 1454259846#3 1454259846#4 420918583 149539151#0 149539151#1 149539151#2 149539151#3 149539151#4 149539151#5 149539151#6 149539151#7 149539151#8 149539151#9 149539151#10 176157308 214485131#0 214485131#1 214485131#2 214485131#3 214485131#4 214485131#5 214485131#6 214485131#7 38518014#11 38518014#12 38518014#13 38518014#14 38518014#15 38518014#16"/>
    </vehicle>
    <vehicle id="33" depart="42.20">
        <route edges="40520549#0 40520549#1 1347892960 1347892959 1347892957 1347892958 1347892956 1347892955 1347892954 1347892953 1347892952 1347892944 1347892943 1444483469 1347892942#0 1347892942#1 1347892938#0 1347892938#1 1444483471#0 1444483471#1 338675698#0 338675698#1 338675698#2 338675698#3 338675698#4 338675698#5 338675698#6 338675698#7 338675698#8 338675698#9 338675698#10 338675698#11 338675698#12 338675698#13 520730557#0 520730557#1 520730557#2 520730557#3 149539175#0 149539175#1 421572444#0 421572444#1 420918538 512509918#0 512509918#1 1446253328#0 1446253328#1 421572485 423645191 421572447 421572488#0 1446253324 59541063#0 59541063#1 59541063#2 59541063#3 59541063#4 59541063#5"/>
    </vehicle>
    <vehicle id="34" depart="44.00">
        <route edges="203937556#1 203937556#2 34882325#2 34882325#3 339220624#5 1454259846#2 1454259846#3 1454259846#4 420918583 422855901 422855910 149539158 1445341540#0 1445341540#1 421572469#0 421572469#1 -520730557#3 -520730557#2 -520730557#1 -520730557#0 -338675698#13 -338675698#12 -338675698#11 -338675698#10 -338675698#9 -338675698#8 -338675698#7 -338675698#6 -338675698#5 -338675698#4 -338675698#3"/>
    </vehicle>
    <vehicle id="35" depart="45.80">
        <route edges="338675698#5 338675698#6 -338675698#6 -338675698#5 -338675698#4 -338675698#3 -338675698#2 -338675698#1 -338675698#0 -1444483471#1 -1444483471#0 1347892939#0 1347892939#1 1347892938#0 1444483470#0 1444483470#1 214485139#0 214485139#1 1444483463#0 1444483463#1 1433305207#1 1245413406 1433305208#0 1433305208#1 1444483467 579703667#0 579703667#1 579703667#2 579703667#3"/>
    </vehicle>
    <vehicle id="36" depart="46.00">
        <route edges="579231075#3 579231075#4 579231075#5 579231075#6 579231075#7 579231075#8 579231973#1 579231973#2 579231973#3 579231973#4 579231973#5 579231973#6 579231973#7 1312225446#4 1312225446#5 1312225446#6 1312225446#0 36359547#0 36359547#1 36359547#2 36359547#3 36359547#4 36359547#5 36359547#6 738358879#3 -514302004#1 -514302004#0 -1111202193 -1365663320#1 -1365663320#0 -520401691#1 -520401691#0 738343260#0 738343260#1 520401694#0 520401694#1 520401694#2 520401694#3 520401694#4 1365663322 1368230240#0 1368230240#1 1365663323 339183558 1339182206#0 1339182206#1 1316247796#0 1316247796#1 1316247797 514933199#0 514933199#1 514933199#2 1368343178#0 1368343178#1 -1384176976#2 -1384176976#1 -1384176976#0 38518215#0 38518215#1 38518215#2 38518215#3 38518215#4 38518215#5 38518215#6 174297850#1 174297850#2 38518214#7"/>
    </vehicle>
    <vehicle id="37" depart="48.00">
        <route edges="38517867#0 -38517867#0 1445332643#1 1445332643#2 1445332643#3 -521351151#1 -521351151#0 -1445370464#1 421566998#3 421566998#4 1316812043#0 1316812043#1 514931787#0 514931787#1 514931787#2 514931787#3 514931787#4 514931787#5 738358879#0 738358879#1 421567012#0 421567012#1 421567012#2 421567012#3 421567012#4 421567012#5 421567012#6 1312225446#2 1312225446#3 1312225446#4 1312225446#5 174297960#0 174297960#1 174297960#2 38517885#1 38517885#2 38517885#3"/>
    </vehicle>
    <vehicle id="38" depart="48.80">
        <route edges="1426161671 1425801163#0 1426161672#1 1426161672#2 243446015#0 243446015#1 243446015#2 243446015#3 243446015#4 421685182#0 421685182#1 519371475#0 519371475#1 421572457 149539147 420918583 422855901 422855910 149539158 1445341540#0 1445341540#1 421572469#0 421572469#1 -520730557#3 -520730557#2 -520730557#1 -520730557#0 -38517884#34 -38517884#33 -38517884#32 -38517884#31 -38517884#30 -38517884#29 -38517884#28 -38517884#27 -38517884#26 -38517884#25 -38517884#24 -38517884#23 -38517884#22 -38517884#21 -38517884#20 -38517884#19 -38517884#18 -38517884#17 -38517884#16 -38517884#15 -38517884#14 -38517884#13 -38517884#12 -38517884#11 -38517884#10 -38517884#9 -38517884#8 -38517884#7 -38517884#6 -38517884#5 -520401694#2 -520401694#1 -520401694#0 1111202198#0 1111202198#1 520401691#0 520401691#1 1365663320#0 1365663320#1 1111202193 514302004#0 514302004#1 1111202202#0 1111202202#1 738358879#0 182932892#0 182932892#1 182932892#2 182932892#3 182932892#4 182932892#5 579235165#0 579235165#1 38504970#2"/>
    </vehicle>
    <vehicle id="39" depart="53.00">
        <route edges="1444483459 38518124#0 38518124#1 1444483458 1444483456#1 59541097#0 59541097#1 59541097#2 1446253329#0 1446253329#1 423645191 421572447 421572488#0 421572488#1 421685204 421685183 1446253327 149539153#0 149539153#1 519371475#0 519371475#1 421572457 149539147 420918583 149539151#0 149539151#1 149539151#2 149539151#3 149539151#4 149539151#5 149539151#6 149539151#7 149539151#8 149539151#9 149539151#10 176157308 214485131#0 214485131#1 214485131#2 214485131#3 214485131#4 214485131#5 214485131#6 214485131#7 38518014#11 38518014#12 38518014#13 38518014#14 1421674160#18 1421674160#19 1421674160#20 1421674160#21 1421674160#22 1421674160#23 422855908#3 422855908#4"/>
    </vehicle>
    <vehicle id="40" depart="53.80">
        <route edges="-1443938591#1 1387286079#0 1387286079#1 -202733886 8013558#0 8013558#1 421572444#0 421572444#1 420918538 512509918#0 512509918#1 1446253328#0 1446253328#1 421572485 423645191 421572447 421572488#0 421572488#1 1446253325 203937551 243446016#0 243446016#1 243446016#2 243446016#3 -1443953263 36363606#0 36363606#1 36363606#2"/>
    </vehicle>
    <vehicle id="41" depart="54.20">
        <route edges="36359436#1 36359436#2 36359436#3 36359436#4 -1372563883 -1372563884 421566998#0 421566998#1 421566998#2 421566998#3 421566998#4 1316812043#0 1316812043#1 514931787#0 514931787#1 514931787#2 514931787#3 514931787#4 514931787#5 738358879#0 738358879#1 421567012#0 421567012#1 421567012#2 421567012#3 421567012#4 421567012#5 421567012#6 1312225446#2 1312225446#3 1312225446#4 182932867#0 182932867#1 182932867#2 182932867#3 1444512987#0 1444512987#1 1444512986 1444483472#0 1444483472#1 1347892939#1 1347892938#0 1444483470#0 1444483470#1 214485139#0 214485139#1 1444483463#0 1444483463#1 1433305207#1 1245413406 1433305208#0 1444483468#0 1444483468#1 1444474425#0 1444474425#1 1453810092#2 1453810092#0 1453810092#1 -1444474425#1 -1444474425#0 -1444483468#1"/>
    </vehicle>
    <vehicle id="42" depart="56.00">
        <route edges="38518013 422855908#13 422855908#14 422855908#15 422855908#16 422855910 149539158 1445341540#0 1445341540#1 421572469#0 1390942777 38518014#0 38518014#1 38518014#2 38518014#3 38785118#3 38785118#4 38785118#5"/>
    </vehicle>
    <vehicle id="43" depart="56.20">
        <route edges="-203937556#0 203937560#1 422535850#1 422535850#2 422535850#3 422535850#4 288132613 149539151#6 149539151#7 149539151#8 149539151#9 149539151#10 149539151#11 149539151#12 1316247792 1339182211#0 1339182211#1 1316247797 1316247793#0 1339182209 422855905#0 422855905#1 422855905#2 422855905#3 422855905#4 422855905#5 1328516461#0 1328516461#1 1328516461#2 1328516460#0 174302521#2 1375872445#0 1375872445#1 214486836#0 214486836#1 38555546 -38555546"/>
    </vehicle>
    <vehicle id="44" depart="56.20">
        <route edges="203937560#1 422535850#1 422535850#2 422535850#3 422535850#4 288132613 149539151#6 149539151#7 149539151#8 149539151#9 149539151#10 149539151#11 149539151#12 1316247792 1339182211#0 1339182211#1 1316247797 1316247793#0 1316247793#1 1316247793#2 -1339182206#1 -1339182206#0 -339183558 -1365663323 -1368230240#1 -1368230240#0 -1365663322 -520401694#4 -520401694#3 -520401694#2 -520401694#1 -520401694#0 1111202198#0 1111202198#1 520401691#0 520401691#1 1365663320#0 1365663320#1 1111202193 514302004#0 514302004#1 1111202202#0 1111202202#1 738358879#0 182932892#0 182932892#1 182932892#2 -574543919 -38768698#2 -38768698#1 -38768698#0 -38504987#2 708936531#0 708936531#1 708936531#2 1445332642#0 1445332642#1 521351154#4 521351154#5 521351154#6 -38503595#2"/>
    </vehicle>
    <vehicle id="45" depart="56.60">
        <route edges="-38517884#34 -38517884#33 117819585#1 38518013 422855908#13 422855908#14 422855908#15 422855908#16 422855910 420918590 420918538 421572458 421572457 149539155#0 149539155#1 -1454259845#1 -1454259845#0 1454259858#0"/>
    </vehicle>
    <vehicle id="46" depart="56.80">
        <route edges="514302004#0 514302004#1 1111202202#0 1111202202#1 738358879#0 738358879#1 738358879#2 738358879#3 -514302004#1 -514302004#0 -1111202193 -1365663320#1 -1365663320#0 -520401691#1 -520401691#0 738343260#0 738343260#1 520401694#0 520401694#1 520401694#2 520401694#3 520401694#4 1365663322 1368230240#0 1368230240#1 1365663323 1316247794 1316247802#0 1316247802#1 1316247802#2 1339182210#1 422855908#0 422855908#1 422855908#2 422855908#3 422855908#4 422855908#5 422855908#6 422855908#7 422855908#8 422855908#9 422855908#10 422855908#11 422855908#12 422855908#13 422855908#14 422855908#15 422855908#16 422855910 420918590 420918538 421572458 421572457 149539155#0 149539155#1 -1454259845#1 -1454259845#0 1454259858#0 1454259858#1 -1454259856 -1454259843 -1454259842"/>
    </vehicle>
    <vehicle id="47" depart="57.00">
        <route edges="38785125#2 1347892958 1347892956 1347892955 1347892954 1347892953 1347892952 1347892944 1347892943 1444483469 1347892942#0 1347892942#1 1347892938#0 1347892938#1 1444483471#0 1444483471#1 338675698#0 338675698#1 338675698#2 338675698#3 338675698#4 338675698#5 338675698#6 338675698#7 338675698#8 338675698#9 338675698#10 338675698#11 338675698#12 338675698#13 -38517884#34 -38517884#33 -38517884#32 -38517884#31 -38517884#30 -38517884#29 -38517884#28 -38517884#27 -38517884#26 -38517884#25 -38517884#24 -38517884#23 -38517884#22 -38517884#21 -38517884#20 -38517884#19 -38517884#18 -38517884#17 -38517884#16 -38517884#15 -38517884#14 -38517884#13 -38517884#12 -38517884#11 -38517884#10 -38517884#9 -38517884#8 -38517884#7 -38517884#6 -38517884#5 520401694#3 520401694#4 1365663322 1368230240#0 1368230240#1 1365663323 339183558 1339182206#0 1339182206#1 1316247796#0 1316247796#1 1316247797 1316247793#0 1339182209 422855905#0 422855905#1 422855905#2"/>
    </vehicle>
    <vehicle id="48" depart="59.20">